Version 4
SHEET 1 916 752
WIRE 304 128 272 128
WIRE 400 128 384 128
WIRE 80 160 16 160
WIRE 96 160 80 160
WIRE 656 160 656 112
WIRE 96 176 96 160
WIRE 192 176 176 176
WIRE -368 224 -368 208
WIRE -240 224 -240 208
WIRE 336 240 336 208
WIRE 192 256 192 176
WIRE 272 256 272 128
WIRE 304 256 272 256
WIRE -368 272 -368 224
WIRE -240 272 -240 224
WIRE 32 272 -80 272
WIRE 48 272 32 272
WIRE 400 272 400 128
WIRE 400 272 368 272
WIRE 480 272 400 272
WIRE 656 272 656 224
WIRE 656 272 560 272
WIRE 720 272 656 272
WIRE 752 272 720 272
WIRE 48 288 48 272
WIRE 144 288 128 288
WIRE 304 288 144 288
WIRE 656 320 656 272
WIRE -32 352 -80 352
WIRE 336 368 336 304
WIRE 176 448 -240 448
WIRE -240 464 -240 448
WIRE 352 464 272 464
WIRE 144 512 144 288
WIRE 144 608 144 592
WIRE 352 608 352 544
WIRE 272 624 272 544
WIRE 144 736 144 688
FLAG -32 352 0
FLAG 720 272 out
FLAG 144 736 0
FLAG -368 352 0
FLAG -240 352 0
FLAG -368 224 +12
FLAG -240 224 -12
FLAG 336 208 +12
FLAG 336 368 -12
FLAG -240 464 +3v3
FLAG -240 544 0
FLAG 32 272 in
FLAG 656 384 0
FLAG 656 112 +3v3
FLAG 352 608 0
FLAG 80 160 in
FLAG 16 160 0
SYMBOL voltage -80 256 R0
SYMATTR InstName V1
SYMATTR Value SINE(0 5 25000)
SYMATTR Value2 AC 11
SYMBOL Opamps/opamp2 336 208 R0
SYMATTR InstName U2
SYMATTR Value TL074
SYMBOL res 576 256 R90
WINDOW 0 0 56 VBottom 2
WINDOW 3 32 56 VTop 2
SYMATTR InstName R3
SYMATTR Value 100K
SYMBOL res 400 112 R90
WINDOW 0 0 56 VBottom 2
WINDOW 3 32 56 VTop 2
SYMATTR InstName R4
SYMATTR Value 33K
SYMBOL res 128 496 R0
SYMATTR InstName R1
SYMATTR Value 33k
SYMBOL res 144 272 R90
WINDOW 0 0 56 VBottom 2
WINDOW 3 32 56 VTop 2
SYMATTR InstName R2
SYMATTR Value 100K
SYMBOL voltage 144 592 R0
SYMATTR InstName V2
SYMATTR Value 1.65
SYMBOL voltage -368 256 R0
SYMATTR InstName V3
SYMATTR Value 12
SYMBOL voltage -240 256 R0
SYMATTR InstName V4
SYMATTR Value -12
SYMBOL voltage -240 448 R0
SYMATTR InstName V5
SYMATTR Value 3.3
SYMBOL diode 672 384 R180
WINDOW 0 24 64 Left 2
WINDOW 3 24 0 Left 2
SYMATTR InstName D1
SYMATTR Value 1N914
SYMBOL diode 672 224 R180
WINDOW 0 24 64 Left 2
WINDOW 3 24 0 Left 2
SYMATTR InstName D2
SYMATTR Value 1N914
SYMBOL res 256 448 R0
SYMATTR InstName R5
SYMATTR Value 50K
SYMBOL res 336 448 R0
SYMATTR InstName R6
SYMATTR Value 33K
SYMBOL res 192 160 R90
WINDOW 0 0 56 VBottom 2
WINDOW 3 32 56 VTop 2
SYMATTR InstName R7
SYMATTR Value 100K
TEXT 648 448 Left 2 !.inc TL074.mod
TEXT 656 504 Left 2 !.tran 100u
